<?xml version="1.0" encoding="UTF-8"?>
<!DOCTYPE network SYSTEM "http://www.matsim.org/files/dtd/network_v2.dtd">
<network>

<!-- ====================================================================== -->

	<nodes>
		<node id="1097971350" x="-7342144.537322297" y="-2850710.2758136326" >
		</node>
		<node id="1113784206" x="-7341488.124867148" y="-2848251.2379187136" >
		</node>
		<node id="1113784634" x="-7341430.060290241" y="-2848263.1421896615" >
		</node>
		<node id="132347421" x="-7341935.973891328" y="-2848174.9762963173" >
		</node>
		<node id="1363061402" x="-7344927.664869406" y="-2849799.633757394" >
		</node>
		<node id="1389167135" x="-7344840.005874993" y="-2850645.015135681" >
		</node>
		<node id="1389167145" x="-7344839.572732443" y="-2850659.5468785195" >
		</node>
		<node id="1389167158" x="-7344809.069709796" y="-2850849.983757041" >
		</node>
		<node id="1393378086" x="-7343037.29978426" y="-2850042.254119619" >
		</node>
		<node id="1393378087" x="-7343044.356315957" y="-2850049.5986408666" >
		</node>
		<node id="1393378098" x="-7342952.56401537" y="-2850342.5829031696" >
		</node>
		<node id="1393378128" x="-7343523.899031446" y="-2850419.715406921" >
		</node>
		<node id="1393378276" x="-7343591.545598249" y="-2850795.5448863665" >
		</node>
		<node id="140804525" x="-7342289.499923559" y="-2848184.887125683" >
		</node>
		<node id="140804527" x="-7342256.3636016" y="-2848438.1846705913" >
		</node>
		<node id="140804535" x="-7342301.360907035" y="-2848788.800773335" >
		</node>
		<node id="140804544" x="-7342216.259420774" y="-2849197.9633472646" >
		</node>
		<node id="140806264" x="-7342280.051447316" y="-2848771.0105307973" >
		</node>
		<node id="140806267" x="-7342209.129489079" y="-2848666.203960195" >
		</node>
		<node id="140806268" x="-7342241.460402454" y="-2848436.284242025" >
		</node>
		<node id="140806270" x="-7342274.658178805" y="-2848182.988546737" >
		</node>
		<node id="140806271" x="-7342294.318190071" y="-2848030.9527138327" >
		</node>
		<node id="140807081" x="-7342191.470260983" y="-2848092.3512855885" >
		</node>
		<node id="140807082" x="-7342166.858288835" y="-2848106.1809389098" >
		</node>
		<node id="140829053" x="-7344863.512080649" y="-2850652.9717395105" >
		</node>
		<node id="140829084" x="-7343414.77829495" y="-2849223.8833412076" >
		</node>
		<node id="140829091" x="-7343070.7219650885" y="-2848527.4264759175" >
		</node>
		<node id="140838881" x="-7343250.969522783" y="-2848773.9617363513" >
		</node>
		<node id="140838883" x="-7343430.151925581" y="-2849220.44537786" >
		</node>
		<node id="140838890" x="-7343961.902733983" y="-2849907.1157524684" >
		</node>
		<node id="140838893" x="-7344193.489234551" y="-2850099.6202363474" >
		</node>
		<node id="140838899" x="-7344828.751854795" y="-2850620.6471563815" >
		</node>
		<node id="140848383" x="-7343569.991345294" y="-2848318.9119113297" >
		</node>
		<node id="140848384" x="-7343424.051225109" y="-2848158.8892872147" >
		</node>
		<node id="140848385" x="-7343325.135319053" y="-2848056.4250427135" >
		</node>
		<node id="140848388" x="-7343004.463527095" y="-2847832.736557323" >
		</node>
		<node id="1421376033" x="-7344066.05784137" y="-2848238.937688683" >
		</node>
		<node id="1421376041" x="-7344038.829945023" y="-2848263.8901042417" >
		</node>
		<node id="1421393958" x="-7344051.573461975" y="-2848266.331826005" >
		</node>
		<node id="1423143099" x="-7344215.766269822" y="-2848123.176088296" >
		</node>
		<node id="1423143129" x="-7344070.341217242" y="-2848249.4544619834" >
		</node>
		<node id="142796703" x="-7344174.676771852" y="-2848359.798317974" >
		</node>
		<node id="142799348" x="-7343178.508928515" y="-2849229.2133433693" >
		</node>
		<node id="142799349" x="-7343022.450668335" y="-2849360.5553833325" >
		</node>
		<node id="142799353" x="-7342673.2583081545" y="-2849655.4017815385" >
		</node>
		<node id="142799356" x="-7342214.65035288" y="-2850009.8439478776" >
		</node>
		<node id="142799357" x="-7342202.175778752" y="-2850035.232538673" >
		</node>
		<node id="142801237" x="-7344953.914204917" y="-2849243.1616405398" >
		</node>
		<node id="142802741" x="-7344828.720934834" y="-2849502.8718123455" >
		</node>
		<node id="142803399" x="-7344801.0447253175" y="-2849660.1455183052" >
		</node>
		<node id="142803400" x="-7344784.910890803" y="-2849801.7562748045" >
		</node>
		<node id="142803401" x="-7344755.105955906" y="-2849958.222609049" >
		</node>
		<node id="142803940" x="-7344735.271992663" y="-2849972.4058218566" >
		</node>
		<node id="142803941" x="-7344599.1701324945" y="-2849986.7275735894" >
		</node>
		<node id="142805147" x="-7344214.30574786" y="-2850116.754151573" >
		</node>
		<node id="142805148" x="-7344189.810294404" y="-2850119.3727818322" >
		</node>
		<node id="142806214" x="-7344041.188280646" y="-2850258.3828616655" >
		</node>
		<node id="142806215" x="-7343869.459605484" y="-2850424.408647964" >
		</node>
		<node id="142806216" x="-7343750.834973972" y="-2850539.1146884" >
		</node>
		<node id="142808163" x="-7343317.168062408" y="-2850335.474056749" >
		</node>
		<node id="142808164" x="-7343226.5249601975" y="-2850239.842260337" >
		</node>
		<node id="142808165" x="-7343164.16396739" y="-2850174.439329037" >
		</node>
		<node id="142808168" x="-7342797.179596557" y="-2849789.950102569" >
		</node>
		<node id="142808169" x="-7342518.806108526" y="-2849409.3584612156" >
		</node>
		<node id="142808170" x="-7342451.518919745" y="-2849299.700344549" >
		</node>
		<node id="142808171" x="-7342297.19899194" y="-2849086.6224386543" >
		</node>
		<node id="142808173" x="-7341966.097851827" y="-2848640.403767287" >
		</node>
		<node id="142808175" x="-7341851.840901327" y="-2848487.5107954517" >
		</node>
		<node id="142808179" x="-7341578.965414683" y="-2848034.4763748306" >
		</node>
		<node id="1464773890" x="-7342658.758250133" y="-2847913.350211489" >
		</node>
		<node id="151271481" x="-7344522.163041997" y="-2850186.6019948265" >
		</node>
		<node id="151272325" x="-7344078.588983575" y="-2849802.852354187" >
		</node>
		<node id="151272448" x="-7343983.914858835" y="-2849698.5188360247" >
		</node>
		<node id="151272834" x="-7343728.875944312" y="-2849415.601344477" >
		</node>
		<node id="151272836" x="-7343624.795900945" y="-2849509.3260292085" >
		</node>
		<node id="151273009" x="-7343652.123363448" y="-2849329.845984274" >
		</node>
		<node id="151273011" x="-7343549.104198534" y="-2849420.3919682303" >
		</node>
		<node id="151273480" x="-7343576.381402464" y="-2849245.2467724006" >
		</node>
		<node id="151273485" x="-7343205.935319364" y="-2849575.579627014" >
		</node>
		<node id="151273843" x="-7343280.874414157" y="-2849663.6399171175" >
		</node>
		<node id="151275040" x="-7342755.321059358" y="-2849043.326941294" >
		</node>
		<node id="151275041" x="-7342834.548235344" y="-2849141.0894666277" >
		</node>
		<node id="151275042" x="-7343108.368449871" y="-2849461.1800129022" >
		</node>
		<node id="151275043" x="-7343782.563802723" y="-2850250.6581829367" >
		</node>
		<node id="151275578" x="-7342891.628481964" y="-2848872.68451487" >
		</node>
		<node id="151275580" x="-7342993.877543753" y="-2849005.717505671" >
		</node>
		<node id="151275585" x="-7343357.416894258" y="-2849440.6454884275" >
		</node>
		<node id="151275586" x="-7343431.653100906" y="-2849528.552704318" >
		</node>
		<node id="151275587" x="-7343505.816697287" y="-2849616.8214642913" >
		</node>
		<node id="151275590" x="-7343923.664531087" y="-2850117.8524653823" >
		</node>
		<node id="151277275" x="-7343363.484239767" y="-2848473.6665737596" >
		</node>
		<node id="1544684377" x="-7341810.394997459" y="-2850388.3828054895" >
		</node>
		<node id="1544694514" x="-7342169.251590061" y="-2850582.476247109" >
		</node>
		<node id="1544694517" x="-7342150.198419833" y="-2850560.309421702" >
		</node>
		<node id="1544694521" x="-7342173.5670274" y="-2850548.5739933955" >
		</node>
		<node id="1544694524" x="-7342446.411651155" y="-2850738.917056839" >
		</node>
		<node id="1544706320" x="-7341609.669099651" y="-2850635.429794156" >
		</node>
		<node id="1544706321" x="-7341692.16419098" y="-2850668.403952779" >
		</node>
		<node id="1544706323" x="-7341704.303868569" y="-2850500.006693622" >
		</node>
		<node id="1550389884" x="-7344184.118377418" y="-2849910.3416992505" >
		</node>
		<node id="1550389888" x="-7344410.746581143" y="-2850297.2807736564" >
		</node>
		<node id="1550389890" x="-7344421.878228926" y="-2850306.504276387" >
		</node>
		<node id="158836413" x="-7344535.448348319" y="-2848260.9516714136" >
		</node>
		<node id="158836448" x="-7344519.074968012" y="-2848196.998589763" >
		</node>
		<node id="1647221976" x="-7341773.787762571" y="-2849648.0196587937" >
		</node>
		<node id="1647221979" x="-7342048.905241706" y="-2849797.5087135173" >
		</node>
		<node id="1647221989" x="-7341772.797779152" y="-2849865.0601888816" >
		</node>
		<node id="1647222019" x="-7341705.298412278" y="-2850293.238362186" >
		</node>
		<node id="165447673" x="-7344050.541049595" y="-2848252.779658092" >
		</node>
		<node id="165459105" x="-7343630.630856541" y="-2848633.6973078703" >
		</node>
		<node id="165459109" x="-7343471.04895254" y="-2848404.886453682" >
		</node>
		<node id="165459114" x="-7343279.643988807" y="-2848153.9983861097" >
		</node>
		<node id="165460240" x="-7343366.622533392" y="-2848542.225397946" >
		</node>
		<node id="165461351" x="-7342892.378285676" y="-2848144.171684803" >
		</node>
		<node id="165461352" x="-7343296.387357093" y="-2848282.4755317033" >
		</node>
		<node id="165461760" x="-7343274.472744385" y="-2848530.584644789" >
		</node>
		<node id="165461761" x="-7343284.529929981" y="-2848402.2538107587" >
		</node>
		<node id="165462605" x="-7343275.220722106" y="-2848849.6088265167" >
		</node>
		<node id="165462949" x="-7343279.820865901" y="-2848806.0431604735" >
		</node>
		<node id="165462950" x="-7343284.0779888285" y="-2848822.4634573823" >
		</node>
		<node id="165462952" x="-7343300.731113009" y="-2848829.8584779347" >
		</node>
		<node id="165463204" x="-7343371.269321986" y="-2848868.9065067763" >
		</node>
		<node id="165466550" x="-7343843.733186163" y="-2848467.126193997" >
		</node>
		<node id="165467259" x="-7343530.87914629" y="-2848492.7571834764" >
		</node>
		<node id="165467520" x="-7343640.9301891625" y="-2848394.9149277867" >
		</node>
		<node id="165467521" x="-7343827.20692206" y="-2848229.6971562407" >
		</node>
		<node id="1665039639" x="-7341515.039464975" y="-2848234.5316332104" >
		</node>
		<node id="1665298739" x="-7341458.998163686" y="-2848072.163574945" >
		</node>
		<node id="1665298741" x="-7341655.1215914115" y="-2848195.6372112655" >
		</node>
		<node id="1665298746" x="-7341384.363717918" y="-2848277.697322426" >
		</node>
		<node id="1665298749" x="-7341361.625527458" y="-2848284.895464539" >
		</node>
		<node id="167401305" x="-7344794.750641294" y="-2850597.7259946824" >
		</node>
		<node id="1707742228" x="-7342578.092011905" y="-2848312.560973276" >
		</node>
		<node id="172004067" x="-7341156.458953885" y="-2848783.7700723833" >
		</node>
		<node id="172004069" x="-7341327.053423682" y="-2848844.5431562634" >
		</node>
		<node id="172004070" x="-7341544.67541764" y="-2848890.8243553904" >
		</node>
		<node id="172008334" x="-7341435.179320444" y="-2848567.028647907" >
		</node>
		<node id="172014708" x="-7341920.721313552" y="-2848432.3180812425" >
		</node>
		<node id="172015342" x="-7341715.477757022" y="-2848773.9773392277" >
		</node>
		<node id="172015343" x="-7341730.820055624" y="-2848855.621235124" >
		</node>
		<node id="172015344" x="-7341755.598463298" y="-2848957.7056143633" >
		</node>
		<node id="172015345" x="-7341781.517876171" y="-2849074.4918773016" >
		</node>
		<node id="172016420" x="-7341941.02522216" y="-2848722.460247276" >
		</node>
		<node id="172016421" x="-7341992.963734957" y="-2848676.39796151" >
		</node>
		<node id="172016927" x="-7341826.758249877" y="-2848748.0904743928" >
		</node>
		<node id="172017418" x="-7341948.049936661" y="-2849269.455686853" >
		</node>
		<node id="172017420" x="-7341896.084898725" y="-2849046.079108034" >
		</node>
		<node id="172017421" x="-7341869.857712846" y="-2848933.333702247" >
		</node>
		<node id="172017879" x="-7342009.376576076" y="-2849021.4902762934" >
		</node>
		<node id="172017880" x="-7342061.122613396" y="-2849246.328457393" >
		</node>
		<node id="172020359" x="-7341841.849629522" y="-2849295.2095245523" >
		</node>
		<node id="172020361" x="-7341883.621940839" y="-2849617.764113522" >
		</node>
		<node id="172020869" x="-7342105.184242808" y="-2848999.601931372" >
		</node>
		<node id="172020870" x="-7342212.461832334" y="-2848972.489876838" >
		</node>
		<node id="172021002" x="-7342081.121950851" y="-2848884.12984579" >
		</node>
		<node id="172021378" x="-7342140.084649841" y="-2849215.2850455544" >
		</node>
		<node id="172021638" x="-7342194.058134789" y="-2849234.291808827" >
		</node>
		<node id="1727245143" x="-7343354.294899545" y="-2848231.351457108" >
		</node>
		<node id="1735978065" x="-7343369.383766927" y="-2848745.500768282" >
		</node>
		<node id="176009843" x="-7341442.305358061" y="-2848136.6753975316" >
		</node>
		<node id="176010867" x="-7341348.033022848" y="-2848086.6930088513" >
		</node>
		<node id="176010870" x="-7341321.275898434" y="-2847924.39985982" >
		</node>
		<node id="176010879" x="-7341437.063017807" y="-2847944.089910728" >
		</node>
		<node id="176011400" x="-7341320.073289325" y="-2847871.7034033677" >
		</node>
		<node id="176011687" x="-7341420.624140621" y="-2848187.558314152" >
		</node>
		<node id="176012605" x="-7341463.167260098" y="-2847878.63916421" >
		</node>
		<node id="176012607" x="-7341422.830743252" y="-2847987.7724549775" >
		</node>
		<node id="176012608" x="-7341419.204017067" y="-2848011.5357519886" >
		</node>
		<node id="176013188" x="-7341651.914188043" y="-2848188.839763794" >
		</node>
		<node id="176013518" x="-7341539.9703696435" y="-2848187.379242109" >
		</node>
		<node id="176014739" x="-7342087.029308673" y="-2848160.257209786" >
		</node>
		<node id="176014741" x="-7342010.878606781" y="-2848180.141629074" >
		</node>
		<node id="176014742" x="-7341964.2367111165" y="-2848178.619709269" >
		</node>
		<node id="176017405" x="-7341083.307932278" y="-2848465.8931840295" >
		</node>
		<node id="176020912" x="-7341352.370850758" y="-2849353.2874134216" >
		</node>
		<node id="176020914" x="-7341540.105300079" y="-2849604.859157969" >
		</node>
		<node id="176021082" x="-7341622.177877167" y="-2849362.8845643634" >
		</node>
		<node id="1792586377" x="-7344210.147729422" y="-2847873.083281738" >
		</node>
		<node id="1819616337" x="-7343830.43398567" y="-2848452.648113983" >
		</node>
		<node id="1828201040" x="-7344397.421845747" y="-2847928.6204093006" >
		</node>
		<node id="1833396339" x="-7341649.351889307" y="-2848889.1496187868" >
		</node>
		<node id="1833396340" x="-7341486.218193463" y="-2848564.2476864965" >
		</node>
		<node id="1833396350" x="-7341739.908933034" y="-2848961.078918363" >
		</node>
		<node id="1833396354" x="-7342208.322590017" y="-2848854.369370387" >
		</node>
		<node id="1833396360" x="-7341726.445275676" y="-2849330.5713294814" >
		</node>
		<node id="1833396362" x="-7342137.951871048" y="-2848870.676553998" >
		</node>
		<node id="1833396367" x="-7341983.9895986905" y="-2848906.7505533993" >
		</node>
		<node id="1833396369" x="-7341651.410304676" y="-2848981.0271703275" >
		</node>
		<node id="1833396372" x="-7341676.730081443" y="-2848975.254616853" >
		</node>
		<node id="1833396373" x="-7341670.674884962" y="-2849072.5901714987" >
		</node>
		<node id="1836039179" x="-7341327.918241233" y="-2848283.2493939903" >
		</node>
		<node id="1836039182" x="-7341316.621642248" y="-2848283.7988907224" >
		</node>
		<node id="1836039188" x="-7341318.203445204" y="-2848235.2944012205" >
		</node>
		<node id="1836039193" x="-7341330.148030111" y="-2848294.5311916173" >
		</node>
		<node id="184038861" x="-7343263.905684252" y="-2849330.1099283393" >
		</node>
		<node id="184038866" x="-7342762.715787181" y="-2849753.2739861384" >
		</node>
		<node id="184041093" x="-7345069.854091241" y="-2849163.38366177" >
		</node>
		<node id="1870149333" x="-7341839.470413733" y="-2850116.91610961" >
		</node>
		<node id="1870149339" x="-7341682.793472975" y="-2850193.946722323" >
		</node>
		<node id="1902217654" x="-7342460.741582257" y="-2849005.0720673846" >
		</node>
		<node id="1942703812" x="-7341731.124560378" y="-2850465.190506267" >
		</node>
		<node id="1942703818" x="-7343848.72435909" y="-2850857.6964162067" >
		</node>
		<node id="1942703850" x="-7343822.391346678" y="-2850839.5452874876" >
		</node>
		<node id="1942703878" x="-7343779.638656385" y="-2850853.0726595316" >
		</node>
		<node id="1942703888" x="-7343825.403171023" y="-2850898.7982432647" >
		</node>
		<node id="1943676002" x="-7344188.101256308" y="-2848331.8532590326" >
		</node>
		<node id="1944434934" x="-7343861.013744926" y="-2848074.4727341873" >
		</node>
		<node id="1944500110" x="-7344394.686397259" y="-2848434.367398504" >
		</node>
		<node id="1944745397" x="-7342890.1544766165" y="-2848576.772545388" >
		</node>
		<node id="1944745410" x="-7342813.731104977" y="-2848527.9422511267" >
		</node>
		<node id="1944745413" x="-7342699.89280585" y="-2848428.91058961" >
		</node>
		<node id="1944745418" x="-7342722.941859496" y="-2848277.3887867103" >
		</node>
		<node id="1945309890" x="-7343774.979548714" y="-2848000.513106491" >
		</node>
		<node id="1945948398" x="-7343754.589776328" y="-2848005.6857291427" >
		</node>
		<node id="1952529542" x="-7344069.341322657" y="-2848262.0616477146" >
		</node>
		<node id="1952529564" x="-7344267.844781337" y="-2848095.0633573583" >
		</node>
		<node id="1952529574" x="-7344180.693039535" y="-2848261.419234814" >
		</node>
		<node id="1952529583" x="-7344143.495221556" y="-2848246.7967937384" >
		</node>
		<node id="1952545091" x="-7344033.608927449" y="-2848306.2905070484" >
		</node>
		<node id="1952553606" x="-7344409.64305648" y="-2847988.8496418395" >
		</node>
		<node id="1952553627" x="-7344392.038857685" y="-2848004.559696001" >
		</node>
		<node id="1952553629" x="-7344425.725419086" y="-2848011.591860021" >
		</node>
		<node id="1952553635" x="-7344436.157206612" y="-2848022.583360222" >
		</node>
		<node id="1952573084" x="-7344406.45320562" y="-2848002.317374836" >
		</node>
		<node id="1952573112" x="-7344394.145504994" y="-2848030.628222384" >
		</node>
		<node id="1952817273" x="-7344222.815093059" y="-2848098.8439896256" >
		</node>
		<node id="1952817282" x="-7344471.112870967" y="-2848099.267300954" >
		</node>
		<node id="1952817289" x="-7344243.829305462" y="-2848107.4872333207" >
		</node>
		<node id="1952817313" x="-7344234.69385807" y="-2848090.641380867" >
		</node>
		<node id="1952817330" x="-7344226.716981482" y="-2848110.77304543" >
		</node>
		<node id="1952817336" x="-7344245.260452535" y="-2848102.9283035845" >
		</node>
		<node id="1953466354" x="-7343442.106254161" y="-2848828.244464554" >
		</node>
		<node id="1953466357" x="-7343757.179203799" y="-2848519.450453772" >
		</node>
		<node id="1953466358" x="-7342418.955832014" y="-2849682.7953834576" >
		</node>
		<node id="1953466359" x="-7342580.221413297" y="-2849533.0074491296" >
		</node>
		<node id="1953466360" x="-7342923.543666233" y="-2849244.700811986" >
		</node>
		<node id="1953466361" x="-7342589.188955635" y="-2849551.325421633" >
		</node>
		<node id="1953466362" x="-7343848.594049173" y="-2848432.4964464847" >
		</node>
		<node id="1953466363" x="-7343769.992891983" y="-2848533.3728393554" >
		</node>
		<node id="1953466364" x="-7343866.6501964405" y="-2848451.3800088167" >
		</node>
		<node id="1953466365" x="-7343525.489236778" y="-2848728.597460677" >
		</node>
		<node id="1953466367" x="-7343538.26840347" y="-2848740.9623880787" >
		</node>
		<node id="1953466370" x="-7342936.692713097" y="-2849260.067492964" >
		</node>
		<node id="1953466373" x="-7342327.097224912" y="-2849753.737576751" >
		</node>
		<node id="1953466375" x="-7343430.197437389" y="-2848814.9128424963" >
		</node>
		<node id="1953466378" x="-7342408.00489809" y="-2849666.635364819" >
		</node>
		<node id="1953778537" x="-7344360.30717857" y="-2848429.2016211194" >
		</node>
		<node id="1953778568" x="-7344503.187606627" y="-2848523.1162985526" >
		</node>
		<node id="1953778580" x="-7344328.718152923" y="-2848408.8786324165" >
		</node>
		<node id="1953784146" x="-7344261.920401724" y="-2848358.81778962" >
		</node>
		<node id="1954046216" x="-7343986.971530081" y="-2847610.874384263" >
		</node>
		<node id="1954046275" x="-7344312.317408887" y="-2848190.8780050427" >
		</node>
		<node id="1973766207" x="-7342610.072380834" y="-2849165.884221606" >
		</node>
		<node id="1975523049" x="-7344546.0857115965" y="-2849196.846673302" >
		</node>
		<node id="1990911134" x="-7343081.048203271" y="-2849112.673434274" >
		</node>
		<node id="1990911135" x="-7343093.248328393" y="-2849128.221003153" >
		</node>
		<node id="1990934596" x="-7342680.524470461" y="-2849271.9646982113" >
		</node>
		<node id="1990934597" x="-7342769.857428002" y="-2849373.5878146687" >
		</node>
		<node id="1990934598" x="-7342783.20030507" y="-2849388.6512521035" >
		</node>
		<node id="1990934599" x="-7342870.403908972" y="-2849487.129590164" >
		</node>
		<node id="1990934601" x="-7342957.728786601" y="-2849588.0170004955" >
		</node>
		<node id="1990934602" x="-7343034.061108906" y="-2849675.7885140013" >
		</node>
		<node id="1990934603" x="-7343109.954725402" y="-2849763.1489050547" >
		</node>
		<node id="2006965186" x="-7344244.6641628025" y="-2849257.8320496967" >
		</node>
		<node id="2006965189" x="-7343883.235152457" y="-2849587.34656852" >
		</node>
		<node id="2006965192" x="-7343388.401718275" y="-2850081.7906903876" >
		</node>
		<node id="2006965195" x="-7344641.347958426" y="-2848900.4477820154" >
		</node>
		<node id="2006965197" x="-7344016.34212686" y="-2849466.1664470527" >
		</node>
		<node id="2006965199" x="-7344744.924761861" y="-2848806.770460396" >
		</node>
		<node id="2006965201" x="-7343764.664853569" y="-2849698.2419954664" >
		</node>
		<node id="2006965203" x="-7344538.627174261" y="-2848992.9586982136" >
		</node>
		<node id="2006965204" x="-7344440.3672516765" y="-2849080.760061607" >
		</node>
		<node id="2006965206" x="-7343775.3370849965" y="-2849687.2333266037" >
		</node>
		<node id="2006965208" x="-7344114.996816992" y="-2849375.498725111" >
		</node>
		<node id="2006965210" x="-7344348.197779174" y="-2849163.8795961505" >
		</node>
		<node id="2006965212" x="-7343665.184425926" y="-2849806.5737126814" >
		</node>
		<node id="2006965214" x="-7343523.271864727" y="-2849948.1752885147" >
		</node>
		<node id="2006973631" x="-7343661.468978294" y="-2848236.9585351716" >
		</node>
		<node id="2006973634" x="-7344226.419560486" y="-2848845.8370430414" >
		</node>
		<node id="2006973638" x="-7344333.99374732" y="-2848963.957390059" >
		</node>
		<node id="2006973647" x="-7343733.804994319" y="-2848312.541034512" >
		</node>
		<node id="2006973650" x="-7344135.028158235" y="-2848745.482462965" >
		</node>
		<node id="2006973653" x="-7343584.988981312" y="-2848157.0440718946" >
		</node>
		<node id="2008482157" x="-7343711.668240063" y="-2850168.5511654387" >
		</node>
		<node id="2008482161" x="-7343575.591546365" y="-2850296.0028869794" >
		</node>
		<node id="2008482164" x="-7343478.325511815" y="-2850184.5307713505" >
		</node>
		<node id="2008482166" x="-7343613.191478205" y="-2850053.741385431" >
		</node>
		<node id="2021000680" x="-7342690.909041376" y="-2847926.6928918855" >
		</node>
		<node id="2021000708" x="-7343219.139051444" y="-2848997.8660683394" >
		</node>
		<node id="2070797828" x="-7343539.077472198" y="-2849429.4008549657" >
		</node>
		<node id="2070954422" x="-7341399.080106499" y="-2848467.962915183" >
		</node>
		<node id="2070954431" x="-7341446.668223197" y="-2848594.1327202017" >
		</node>
		<node id="2073443949" x="-7341603.948492795" y="-2848460.701635094" >
		</node>
		<node id="2073443954" x="-7342236.174480345" y="-2848720.86704542" >
		</node>
		<node id="2079100815" x="-7344541.766880715" y="-2848234.6770063452" >
		</node>
		<node id="2082358176" x="-7341594.183703692" y="-2849193.7570300205" >
		</node>
		<node id="2098758071" x="-7343964.360483218" y="-2848365.1254108576" >
		</node>
		<node id="2099094545" x="-7342477.947047279" y="-2848890.814511294" >
		</node>
		<node id="2140878165" x="-7342671.860180173" y="-2848217.0241172225" >
		</node>
		<node id="2140878170" x="-7342674.511710862" y="-2848234.3121074946" >
		</node>
		<node id="2147307304" x="-7344757.096150606" y="-2849231.59383678" >
		</node>
		<node id="2147307307" x="-7344659.037409349" y="-2849320.867778312" >
		</node>
		<node id="2158445324" x="-7344050.215982166" y="-2849639.477768649" >
		</node>
		<node id="2158445325" x="-7344065.335384658" y="-2849679.3276170827" >
		</node>
		<node id="2159980889" x="-7343985.693400399" y="-2850058.682672134" >
		</node>
		<node id="2210723697" x="-7341265.327517988" y="-2848049.4913509283" >
		</node>
		<node id="2210723698" x="-7341349.095312127" y="-2848361.1996258893" >
		</node>
		<node id="2214702621" x="-7341721.714142652" y="-2850159.8078883463" >
		</node>
		<node id="2308420507" x="-7343196.040453634" y="-2849387.316689044" >
		</node>
		<node id="2308420508" x="-7343110.025445188" y="-2849286.854135522" >
		</node>
		<node id="2352453476" x="-7343257.287727359" y="-2848965.853311793" >
		</node>
		<node id="2369776691" x="-7342203.9978478495" y="-2849237.8838758175" >
		</node>
		<node id="2370325053" x="-7341532.0337000275" y="-2849649.287808101" >
		</node>
		<node id="2380742610" x="-7344902.495034703" y="-2849378.7220691554" >
		</node>
		<node id="2380742611" x="-7344853.607316428" y="-2849313.693020052" >
		</node>
		<node id="2391065513" x="-7342262.848891748" y="-2848388.616043674" >
		</node>
		<node id="2391065514" x="-7342247.956270896" y="-2848386.7048957124" >
		</node>
		<node id="2395144766" x="-7344171.563356274" y="-2848141.8713594424" >
		</node>
		<node id="2396850243" x="-7341561.590180118" y="-2848989.501084787" >
		</node>
		<node id="2396850246" x="-7341568.513508153" y="-2849032.1483514607" >
		</node>
		<node id="2396850249" x="-7341557.925114142" y="-2848893.479953944" >
		</node>
		<node id="2397319383" x="-7342611.893083274" y="-2849579.5315512996" >
		</node>
		<node id="2397319384" x="-7342578.060819309" y="-2849574.592710846" >
		</node>
		<node id="2397408959" x="-7344878.914286142" y="-2849845.050150592" >
		</node>
		<node id="2397408968" x="-7344764.572258087" y="-2849981.025095991" >
		</node>
		<node id="2397409020" x="-7344745.208559897" y="-2849973.746397848" >
		</node>
		<node id="2397445820" x="-7344721.290527483" y="-2850538.518372887" >
		</node>
		<node id="2397445822" x="-7343389.890541665" y="-2849223.8966734014" >
		</node>
		<node id="2397445824" x="-7343481.495863188" y="-2849330.015465239" >
		</node>
		<node id="2397445826" x="-7343467.025761635" y="-2849342.1556633976" >
		</node>
		<node id="2397445851" x="-7343426.820182434" y="-2849192.8515517074" >
		</node>
		<node id="2400518759" x="-7342316.054884896" y="-2847992.377702852" >
		</node>
		<node id="2400518763" x="-7342412.608312765" y="-2847915.1245808206" >
		</node>
		<node id="2400540466" x="-7342240.769409288" y="-2848557.1081036506" >
		</node>
		<node id="2400540468" x="-7342242.35649316" y="-2848545.0819928395" >
		</node>
		<node id="2400540473" x="-7342224.693103109" y="-2848555.0063501336" >
		</node>
		<node id="2400540474" x="-7342226.372053644" y="-2848542.9940770543" >
		</node>
		<node id="2400595419" x="-7343613.895464052" y="-2849519.4118466154" >
		</node>
		<node id="2400595423" x="-7344298.977894844" y="-2850006.1078294474" >
		</node>
		<node id="2418337388" x="-7343516.1138332905" y="-2848162.6359496084" >
		</node>
		<node id="2418337389" x="-7343472.5251394" y="-2848115.148003644" >
		</node>
		<node id="2419408205" x="-7342103.250441168" y="-2848161.6459855307" >
		</node>
		<node id="2428741831" x="-7343857.949252708" y="-2850864.212886638" >
		</node>
		<node id="2428741835" x="-7343844.089378141" y="-2850865.092230619" >
		</node>
		<node id="2441819611" x="-7342665.45539537" y="-2848210.162233556" >
		</node>
		<node id="2441819626" x="-7342694.684161192" y="-2848264.1651252266" >
		</node>
		<node id="2441819644" x="-7342713.387288694" y="-2848296.4676849907" >
		</node>
		<node id="2451555632" x="-7341267.431535396" y="-2848022.867145524" >
		</node>
		<node id="2451555637" x="-7341249.530189424" y="-2848036.5594254434" >
		</node>
		<node id="2453466206" x="-7341466.299430447" y="-2848579.5334907197" >
		</node>
		<node id="2453626790" x="-7341501.690884743" y="-2847875.686036162" >
		</node>
		<node id="2453626791" x="-7341735.489079681" y="-2850667.0436941693" >
		</node>
		<node id="2454873866" x="-7344520.627223975" y="-2848222.7518852153" >
		</node>
		<node id="2454873871" x="-7344527.31121558" y="-2848240.6265550107" >
		</node>
		<node id="2455534162" x="-7342596.075916316" y="-2849574.9877131917" >
		</node>
		<node id="2466376871" x="-7342100.476768333" y="-2849964.8550128224" >
		</node>
		<node id="246650787" x="-7341188.472463873" y="-2848474.1111775874" >
		</node>
		<node id="246650796" x="-7341387.987956643" y="-2848471.895977992" >
		</node>
		<node id="247954997" x="-7341494.21623628" y="-2847859.519927459" >
		</node>
		<node id="2489402583" x="-7341578.084459224" y="-2849001.769270384" >
		</node>
		<node id="2489402591" x="-7341718.587997077" y="-2849335.022192823" >
		</node>
		<node id="2489402593" x="-7341637.935727665" y="-2849359.6238006884" >
		</node>
		<node id="2499530988" x="-7341843.72456468" y="-2850048.7112038396" >