<?xml version="1.0" encoding="UTF-8"?>
<!DOCTYPE network SYSTEM "http://www.matsim.org/files/dtd/network_v2.dtd">
<network>

<!-- ====================================================================== -->

	<nodes>
		<node id="1097971350" x="-6674493.054729491" y="-4726210.165811733" >
		</node>
		<node id="1113784206" x="-6675914.794259297" y="-4722068.77894169" >
		</node>
		<node id="1113784634" x="-6675818.829107749" y="-4722030.13115255" >
		</node>
		<node id="132347421" x="-6676639.977919782" y="-4722389.130757368" >
		</node>
		<node id="1363061402" x="-6679421.15487589" y="-4727580.222642492" >
		</node>
		<node id="1389167135" x="-6678475.462262426" y="-4728703.5762862805" >
		</node>
		<node id="1389167145" x="-6678460.766596428" y="-4728723.915333459" >
		</node>
		<node id="1389167158" x="-6678232.074714672" y="-4728966.612246414" >
		</node>
		<node id="1393378086" x="-6676437.053014008" y="-4726112.52449666" >
		</node>
		<node id="1393378087" x="-6676440.212409694" y="-4726129.78365779" >
		</node>
		<node id="1393378098" x="-6676023.404880598" y="-4726460.15105606" >
		</node>
		<node id="1393378128" x="-6676779.5850865105" y="-4727118.486417148" >
		</node>
		<node id="1393378276" x="-6676514.376866248" y="-4727720.128629955" >
		</node>
		<node id="140804525" x="-6677144.728256345" y="-4722742.228241635" >
		</node>
		<node id="140804527" x="-6676851.769340315" y="-4723072.315498847" >
		</node>
		<node id="140804535" x="-6676578.412109047" y="-4723616.320341885" >
		</node>
		<node id="140804544" x="-6676059.203671065" y="-4724119.166273132" >
		</node>
		<node id="140806264" x="-6676564.607145054" y="-4723570.474296516" >
		</node>
		<node id="140806267" x="-6676562.72122811" y="-4723352.75646755" >
		</node>
		<node id="140806268" x="-6676831.925113501" y="-4723055.311063049" >
		</node>
		<node id="140806270" x="-6677124.969883554" y="-4722725.285465235" >
		</node>
		<node id="140806271" x="-6677300.472571734" y="-4722526.929459191" >
		</node>
		<node id="140807081" x="-6677091.5149362665" y="-4722516.038591789" >
		</node>
		<node id="140807082" x="-6677042.345435158" y="-4722512.19930415" >
		</node>
		<node id="140829053" x="-6678501.9449694855" y="-4728737.510631364" >
		</node>
		<node id="140829084" x="-6677777.426791875" y="-4725305.756974099" >
		</node>
		<node id="140829091" x="-6677950.256754303" y="-4723980.780335183" >
		</node>
		<node id="140838881" x="-6677974.154190486" y="-4724505.881489336" >
		</node>
		<node id="140838883" x="-6677803.114095846" y="-4725315.595596904" >
		</node>
		<node id="140838890" x="-6677912.428502512" y="-4726806.69767863" >
		</node>
		<node id="140838893" x="-6678063.011073341" y="-4727303.931900173" >
		</node>
		<node id="140838899" x="-6678482.682327182" y="-4728657.966793932" >
		</node>
		<node id="140848383" x="-6678878.243776233" y="-4724161.816380524" >
		</node>
		<node id="140848384" x="-6678820.596498195" y="-4723793.178272169" >
		</node>
		<node id="140848385" x="-6678775.71473548" y="-4723551.893229653" >
		</node>
		<node id="140848388" x="-6678525.30337868" y="-4722924.713484484" >
		</node>
		<node id="1421376033" x="-6679677.392197835" y="-4724523.511842828" >
		</node>
		<node id="1421376041" x="-6679613.64291429" y="-4724533.037323001" >
		</node>
		<node id="1421393958" x="-6679629.825292092" y="-4724548.7543235365" >
		</node>
		<node id="1423143099" x="-6680007.188824682" y="-4724501.765721263" >
		</node>
		<node id="1423143129" x="-6679673.455408225" y="-4724542.648648652" >
		</node>
		<node id="142796703" x="-6679718.570358271" y="-4724800.429899742" >
		</node>
		<node id="142799348" x="-6677428.595005885" y="-4725086.703025416" >
		</node>
		<node id="142799349" x="-6677074.612713568" y="-4725124.6099931635" >
		</node>
		<node id="142799353" x="-6676281.684995636" y="-4725210.801460643" >
		</node>
		<node id="142799356" x="-6675272.129614127" y="-4725277.1760281455" >
		</node>
		<node id="142799357" x="-6675229.448225425" y="-4725301.47080605" >
		</node>
		<node id="142801237" x="-6679997.834190439" y="-4726810.463819488" >
		</node>
		<node id="142802741" x="-6679564.398038795" y="-4727061.295472928" >
		</node>
		<node id="142803399" x="-6679371.950891336" y="-4727259.39698077" >
		</node>
		<node id="142803400" x="-6679211.4478584025" y="-4727446.198198403" >
		</node>
		<node id="142803401" x="-6679016.680440452" y="-4727641.08850364" >
		</node>
		<node id="142803940" x="-6678974.105890766" y="-4727642.306381579" >
		</node>
		<node id="142803941" x="-6678762.284732401" y="-4727532.102010877" >
		</node>
		<node id="142805147" x="-6678076.70870454" y="-4727348.385379512" >
		</node>
		<node id="142805148" x="-6678038.549442902" y="-4727328.613700795" >
		</node>
		<node id="142806214" x="-6677687.909536588" y="-4727384.510252171" >
		</node>
		<node id="142806215" x="-6677277.547270533" y="-4727456.813375455" >
		</node>
		<node id="142806216" x="-6676994.074992751" y="-4727506.786684848" >
		</node>
		<node id="142808163" x="-6676560.453431549" y="-4726799.8080898" >
		</node>
		<node id="142808164" x="-6676521.137863042" y="-4726576.260241417" >
		</node>
		<node id="142808165" x="-6676493.707233361" y="-4726423.021940168" >
		</node>
		<node id="142808168" x="-6676331.820761354" y="-4725521.834316619" >
		</node>
		<node id="142808169" x="-6676294.907828609" y="-4724711.243854145" >
		</node>
		<node id="142808170" x="-6676303.04152096" y="-4724490.085159259" >
		</node>
		<node id="142808171" x="-6676284.534410678" y="-4724037.744983432" >
		</node>
		<node id="142808173" x="-6676234.127121251" y="-4723082.88695645" >
		</node>
		<node id="142808175" x="-6676215.644154052" y="-4722754.944530145" >
		</node>
		<node id="142808179" x="-6676256.317449939" y="-4721846.19332919" >
		</node>
		<node id="1464773890" x="-6677944.365416044" y="-4722708.359219625" >
		</node>
		<node id="151271481" x="-6678456.868506599" y="-4727743.670481975" >
		</node>
		<node id="151272325" x="-6678183.006919007" y="-4726769.759251849" >
		</node>
		<node id="151272448" x="-6678146.231591763" y="-4726529.867072129" >
		</node>
		<node id="151272834" x="-6678048.912840136" y="-4725880.9929947825" >
		</node>
		<node id="151272836" x="-6677806.876252353" y="-4725915.003171558" >
		</node>
		<node id="151273009" x="-6678020.204265648" y="-4725684.846758785" >
		</node>
		<node id="151273011" x="-6677782.787480854" y="-4725715.34006122" >
		</node>
		<node id="151273480" x="-6677991.841314317" y="-4725491.323746615" >
		</node>
		<node id="151273485" x="-6677133.577156221" y="-4725607.7639246285" >
		</node>
		<node id="151273843" x="-6677157.41636965" y="-4725805.439953563" >
		</node>
		<node id="151275040" x="-6676992.739857384" y="-4724415.247604149" >
		</node>
		<node id="151275041" x="-6677013.476859211" y="-4724630.88484665" >
		</node>
		<node id="151275042" x="-6677102.287766478" y="-4725350.7601552745" >
		</node>
		<node id="151275043" x="-6677319.272272482" y="-4727125.264798103" >
		</node>
		<node id="151275578" x="-6677355.970249834" y="-4724302.224871153" >
		</node>
		<node id="151275580" x="-6677376.1051024" y="-4724590.337350083" >
		</node>
		<node id="151275585" x="-6677484.384062542" y="-4725560.356031832" >
		</node>
		<node id="151275586" x="-6677507.352493718" y="-4725757.147472683" >
		</node>
		<node id="151275587" x="-6677529.859133654" y="-4725954.387396717" >
		</node>
		<node id="151275590" x="-6677652.950176455" y="-4727070.998964249" >
		</node>
		<node id="151277275" x="-6678428.165282448" y="-4724184.806170113" >
		</node>
		<node id="1544684377" x="-6674318.444650063" y="-4725430.09256119" >
		</node>
		<node id="1544694514" x="-6674652.541526915" y="-4726051.378164447" >
		</node>
		<node id="1544694517" x="-6674646.271674138" y="-4726001.452161451" >
		</node>
		<node id="1544694521" x="-6674691.591801881" y="-4726007.105751409" >
		</node>
		<node id="1544694524" x="-6674904.228380582" y="-4726540.595095769" >
		</node>
		<node id="1544706320" x="-6673787.839455787" y="-4725590.392250544" >
		</node>
		<node id="1544706321" x="-6673875.892361446" y="-4725716.574199708" >
		</node>
		<node id="1544706323" x="-6674056.312182251" y="-4725487.759698029" >
		</node>
		<node id="1550389884" x="-6678232.508094263" y="-4727024.581285451" >
		</node>
		<node id="1550389888" x="-6678187.726869083" y="-4727794.797988169" >
		</node>
		<node id="1550389890" x="-6678194.990755494" y="-4727818.657822118" >
		</node>
		<node id="158836413" x="-6680339.151217715" y="-4725005.427207714" >
		</node>
		<node id="158836448" x="-6680377.178993658" y="-4724898.331334946" >
		</node>
		<node id="1647221976" x="-6674980.770378582" y="-4724337.704553577" >
		</node>
		<node id="1647221979" x="-6675236.359875592" y="-4724814.991022591" >
		</node>
		<node id="1647221989" x="-6674769.579440363" y="-4724646.7189839445" >
		</node>
		<node id="1647222019" x="-6674257.609682124" y="-4725193.457832336" >
		</node>
		<node id="165447673" x="-6679641.427900105" y="-4724528.4001048105" >
		</node>
		<node id="165459105" x="-6678662.118373698" y="-4724669.728912482" >
		</node>
		<node id="165459109" x="-6678651.162000475" y="-4724189.729546528" >
		</node>
		<node id="165459114" x="-6678615.2028144" y="-4723647.666382537" >
		</node>
		<node id="165460240" x="-6678366.450561535" y="-4724285.76447232" >
		</node>
		<node id="165461351" x="-6678061.221033492" y="-4723262.182384979" >
		</node>
		<node id="165461352" x="-6678515.370453113" y="-4723847.287403058" >
		</node>
		<node id="165461760" x="-6678243.635867303" y="-4724180.735457118" >
		</node>
		<node id="165461761" x="-6678382.3288170565" y="-4724007.040774887" >
		</node>
		<node id="165462605" x="-6677936.298193176" y="-4724637.21288371" >
		</node>
		<node id="165462949" x="-6677985.110264419" y="-4724579.389291598" >
		</node>
		<node id="165462950" x="-6677975.428055681" y="-4724606.93076712" >
		</node>
		<node id="165462952" x="-6677992.504875243" y="-4724633.470626548" >
		</node>
		<node id="165463204" x="-6678057.368236576" y="-4724756.923123" >
		</node>
		<node id="165466550" x="-6679133.2380357" y="-4724636.213903559" >
		</node>
		<node id="165467259" x="-6678653.258229937" y="-4724372.668858149" >
		</node>
		<node id="165467520" x="-6678907.978966296" y="-4724338.462683127" >
		</node>
		<node id="165467521" x="-6679338.768263312" y="-4724281.126664663" >
		</node>
		<node id="1665039639" x="-6675970.084302267" y="-4722070.710945473" >
		</node>
		<node id="1665298739" x="-6676045.387880533" y="-4721785.047091256" >
		</node>
		<node id="1665298741" x="-6676211.437695345" y="-4722149.420119891" >
		</node>
		<node id="1665298746" x="-6675738.296177904" y="-4722007.1253099395" >
		</node>
		<node id="1665298749" x="-6675698.266900943" y="-4721995.614701597" >
		</node>
		<node id="167401305" x="-6678455.420921367" y="-4728592.582739446" >
		</node>
		<node id="1707742228" x="-6677441.219398241" y="-4723201.352451088" >
		</node>
		<node id="172004067" x="-6674917.982716379" y="-4722511.578089174" >
		</node>
		<node id="172004069" x="-6675107.396923936" y="-4722761.887581642" >
		</node>
		<node id="172004070" x="-6675379.205761344" y="-4723036.59066308" >
		</node>
		<node id="172008334" x="-6675532.741225927" y="-4722469.12904957" >
		</node>
		<node id="172014708" x="-6676369.167460486" y="-4722742.135290743" >
		</node>
		<node id="172015342" x="-6675740.524588692" y="-4723033.422266142" >
		</node>
		<node id="172015343" x="-6675683.959346304" y="-4723164.749447694" >
		</node>
		<node id="172015344" x="-6675621.366229566" y="-4723334.317652579" >
		</node>
		<node id="172015345" x="-6675546.2223312985" y="-4723525.976831248" >
		</node>
		<node id="172016420" x="-6676118.371641939" y="-4723176.06297171" >
		</node>
		<node id="172016421" x="-6676238.428317565" y="-4723160.060664811" >
		</node>
		<node id="172016927" x="-6675927.397887891" y="-4723103.125524282" >
		</node>
		<node id="172017418" x="-6675600.029467801" y="-4723964.107763284" >
		</node>
		<node id="172017420" x="-6675740.306287621" y="-4723595.232137148" >
		</node>
		<node id="172017421" x="-6675811.102051561" y="-4723409.04610096" >
		</node>
		<node id="172017879" x="-6675928.844833845" y="-4723668.731203068" >
		</node>
		<node id="172017880" x="-6675786.82925121" y="-4724039.491277963" >
		</node>
		<node id="172020359" x="-6675420.690425228" y="-4723899.069305453" >
		</node>
		<node id="172020361" x="-6675169.728943187" y="-4724399.801950265" >
		</node>
		<node id="172020869" x="-6676089.347539616" y="-4723729.327944461" >
		</node>
		<node id="172020870" x="-6676271.5849296935" y="-4723793.464556977" >
		</node>
		<node id="172021002" x="-6676165.934267002" y="-4723541.31642202" >
		</node>
		<node id="172021378" x="-6675931.6727257585" y="-4724070.864565627" >
		</node>
		<node id="172021638" x="-6675991.803523082" y="-4724149.766750817" >
		</node>
		<node id="1727245143" x="-6678649.0480311" y="-4723829.793208367" >
		</node>
		<node id="1735978065" x="-6678173.939824654" y="-4724578.818632457" >
		</node>
		<node id="176009843" x="-6675958.794166534" y="-4721861.206466017" >
		</node>
		<node id="176010867" x="-6675869.926145282" y="-4721699.451283069" >
		</node>
		<node id="176010870" x="-6675987.741141676" y="-4721441.960945992" >
		</node>
		<node id="176010879" x="-6676137.174832563" y="-4721581.060234585" >
		</node>
		<node id="176011400" x="-6676036.8834732175" y="-4721365.526518527" >
		</node>
		<node id="176011687" x="-6675878.107398362" y="-4721913.114190887" >
		</node>
		<node id="176012605" x="-6676238.365775815" y="-4721512.575873371" >
		</node>
		<node id="176012607" x="-6676074.279972577" y="-4721629.824080597" >
		</node>
		<node id="176012608" x="-6676046.052627818" y="-4721660.295876881" >
		</node>
		<node id="176013188" x="-6676213.337815292" y="-4722136.635165282" >
		</node>
		<node id="176013518" x="-6676051.897692456" y="-4722027.248319625" >
		</node>
		<node id="176014739" x="-6676873.958782461" y="-4722512.91890005" >
		</node>
		<node id="176014741" x="-6676743.9608085295" y="-4722468.319473278" >
		</node>
		<node id="176014742" x="-6676677.575356785" y="-4722421.430388187" >
		</node>
		<node id="176017405" x="-6675118.608132439" y="-4721987.426029303" >
		</node>
		<node id="176020912" x="-6674652.735635039" y="-4723512.777441726" >
		</node>
		<node id="176020914" x="-6674682.666043537" y="-4724052.029708855" >
		</node>
		<node id="176021082" x="-6675035.8284524195" y="-4723785.124323275" >
		</node>
		<node id="1792586377" x="-6680240.851911133" y="-4724139.014863373" >
		</node>
		<node id="1819616337" x="-6679127.8871739665" y="-4724602.767975325" >
		</node>
		<node id="1828201040" x="-6680459.692400639" y="-4724398.088537093" >
		</node>
		<node id="1833396339" x="-6675533.0715489965" y="-4723134.5417276025" >
		</node>
		<node id="1833396340" x="-6675609.667415299" y="-4722514.0777844265" >
		</node>
		<node id="1833396350" x="-6675595.287192546" y="-4723324.094763443" >
		</node>
		<node id="1833396354" x="-6676379.714301715" y="-4723620.769892377" >
		</node>
		<node id="1833396360" x="-6675218.685887839" y="-4723838.933358237" >
		</node>
		<node id="1833396362" x="-6676261.59669976" y="-4723576.589059578" >
		</node>
		<node id="1833396367" x="-6676002.793694344" y="-4723480.498620839" >
		</node>
		<node id="1833396369" x="-6675447.29730171" y="-4723267.748142865" >
		</node>
		<node id="1833396372" x="-6675489.700546509" y="-4723283.775578041" >
		</node>
		<node id="1833396373" x="-6675386.849232272" y="-4723416.997730882" >
		</node>
		<node id="1836039179" x="-6675650.823692018" y="-4721960.957384931" >
		</node>
		<node id="1836039182" x="-6675633.860137477" y="-4721950.915495945" >
		</node>
		<node id="1836039188" x="-6675683.009020988" y="-4721883.143089575" >
		</node>
		<node id="1836039193" x="-6675643.1706778705" y="-4721979.210374251" >
		</node>
		<node id="184038861" x="-6677455.252950491" y="-4725312.751631708" >
		</node>
		<node id="184038866" x="-6676317.16055853" y="-4725436.393728006" >
		</node>
		<node id="184041093" x="-6680243.711466965" y="-4726807.799625672" >
		</node>
		<node id="1870149333" x="-6674623.107677427" y="-4725070.315542358" >
		</node>
		<node id="1870149339" x="-6674320.8554856405" y="-4725030.092195254" >
		</node>
		<node id="1902217654" x="-6676601.229013483" y="-4724078.087636613" >
		</node>
		<node id="1942703812" x="-6674128.956848098" y="-4725463.761350219" >
		</node>
		<node id="1942703818" x="-6676828.182642597" y="-4728055.706843969" >
		</node>
		<node id="1942703850" x="-6676807.456502912" y="-4728004.511762749" >
		</node>
		<node id="1942703878" x="-6676732.20556066" y="-4727982.797365228" >
		</node>
		<node id="1942703888" x="-6676754.504889708" y="-4728092.019830165" >
		</node>
		<node id="1943676002" x="-6679765.129557763" y="-4724773.384367955" >
		</node>
		<node id="1944434934" x="-6679538.045999691" y="-4724091.77527813" >
		</node>
		<node id="1944500110" x="-6679966.592202809" y="-4725118.1138756955" >
		</node>
		<node id="1944745397" x="-6677639.862126309" y="-4723878.085589202" >
		</node>
		<node id="1944745410" x="-6677575.878157351" y="-4723735.029698737" >
		</node>
		<node id="1944745413" x="-6677505.9778720625" y="-4723484.37663437" >
		</node>
		<node id="1944745418" x="-6677685.950547702" y="-4723290.011918119" >
		</node>
		<node id="1945309890" x="-6679484.3571569035" y="-4723903.553248408" >
		</node>
		<node id="1945948398" x="-6679449.685077349" y="-4723891.381894068" >
		</node>
		<node id="1952529542" x="-6679659.809219033" y="-4724559.702560684" >
		</node>
		<node id="1952529564" x="-6680110.161252865" y="-4724511.572125864" >
		</node>
		<node id="1952529574" x="-6679822.46366605" y="-4724665.637617947" >
		</node>
		<node id="1952529583" x="-6679782.47551361" y="-4724609.049108123" >
		</node>
		<node id="1952545091" x="-6679565.044610106" y="-4724588.609411474" >
		</node>
		<node id="1952553606" x="-6680419.232328676" y="-4724495.880952525" >
		</node>
		<node id="1952553627" x="-6680378.419985173" y="-4724501.435033715" >
		</node>
		<node id="1952553629" x="-6680420.643418883" y="-4724543.812104394" >
		</node>
		<node id="1952553635" x="-6680425.194985497" y="-4724569.52953609" >
		</node>
		<node id="1952573084" x="-6680401.565726311" y="-4724512.064144693" >
		</node>
		<node id="1952573112" x="-6680356.275422616" y="-4724540.706650487" >
		</node>
		<node id="1952817273" x="-6680040.976348089" y="-4724473.76235934" >
		</node>
		<node id="1952817282" x="-6680401.903206439" y="-4724712.652014148" >
		</node>
		<node id="1952817289" x="-6680063.198604917" y="-4724506.278299708" >
		</node>
		<node id="1952817313" x="-6680066.194922865" y="-4724473.440935306" >
		</node>
		<node id="1952817330" x="-6680035.118725062" y="-4724494.551872222" >
		</node>
		<node id="1952817336" x="-6680069.6899250215" y="-4724501.137505069" >
		</node>
		<node id="1953466354" x="-6678199.73550995" y="-4724766.792588781" >
		</node>
		<node id="1953466357" x="-6678956.70736028" y="-4724627.923177461" >
		</node>
		<node id="1953466358" x="-6675885.373282164" y="-4725006.026055206" >
		</node>
		<node id="1953466359" x="-6676264.700869867" y="-4724946.754284255" >
		</node>
		<node id="1953466360" x="-6677042.759771282" y="-4724864.248195615" >
		</node>
		<node id="1953466361" x="-6676260.034778583" y="-4724981.518419195" >
		</node>
		<node id="1953466362" x="-6679173.796242229" y="-4724591.401035209" >
		</node>
		<node id="1953466363" x="-6678961.8888072595" y="-4724660.10864274" >
		</node>
		<node id="1953466364" x="-6679181.808744513" y="-4724635.705780081" >
		</node>
		<node id="1953466365" x="-6678417.390597357" y="-4724704.432871494" >
		</node>
		<node id="1953466367" x="-6678424.026729791" y="-4724734.358074495" >
		</node>
		<node id="1953466370" x="-6677047.029330139" y="-4724898.810817384" >
		</node>
		<node id="1953466373" x="-6675683.211816295" y="-4725019.251966656" >
		</node>
		<node id="1953466375" x="-6678195.300681753" y="-4724736.322188315" >
		</node>
		<node id="1953466378" x="-6675885.069024697" y="-4724972.443377304" >
		</node>
		<node id="1953778537" x="-6679921.562594274" y="-4725077.738370099" >
		</node>
		<node id="1953778568" x="-6680038.6337312795" y="-4725349.053720129" >
		</node>
		<node id="1953778580" x="-6679895.252429988" y="-4725018.384456975" >
		</node>
		<node id="1953784146" x="-6679846.468778443" y="-4724882.752221019" >
		</node>
		<node id="1954046216" x="-6680169.57588972" y="-4723550.1843797015" >
		</node>
		<node id="1954046275" x="-6680082.219628394" y="-4724691.157717213" >
		</node>
		<node id="1973766207" x="-6676663.00011793" y="-4724451.005058365" >
		</node>
		<node id="1975523049" x="-6679449.316829159" y="-4726352.791407591" >
		</node>
		<node id="1990911134" x="-6677399.504149152" y="-4724826.738283361" >
		</node>
		<node id="1990911135" x="-6677402.219081816" y="-4724860.6505452925" >
		</node>
		<node id="1990934596" x="-6676662.930081611" y="-4724670.098542236" >
		</node>
		<node id="1990934597" x="-6676694.622110908" y="-4724900.935694714" >
		</node>
		<node id="1990934598" x="-6676699.466189184" y="-4724935.24961382" >
		</node>
		<node id="1990934599" x="-6676731.091400718" y="-4725159.555512278" >
		</node>
		<node id="1990934601" x="-6676760.555316899" y="-4725387.421232238" >
		</node>
		<node id="1990934602" x="-6676786.705454874" y="-4725586.010709289" >
		</node>
		<node id="1990934603" x="-6676812.608494837" y="-4725783.594024981" >
		</node>
		<node id="2006965186" x="-6678951.816492415" y="-4726150.602183229" >
		</node>
		<node id="2006965189" x="-6678107.326158043" y="-4726274.446048926" >
		</node>
		<node id="2006965192" x="-6676909.402590202" y="-4726505.846882732" >
		</node>
		<node id="2006965195" x="-6679874.657124007" y="-4726020.778818508" >
		</node>
		<node id="2006965197" x="-6678418.156071424" y="-4726229.084843397" >
		</node>
		<node id="2006965199" x="-6680115.985814092" y="-4725986.363724091" >
		</node>
		<node id="2006965201" x="-6677827.600129059" y="-4726319.066010883" >
		</node>
		<node id="2006965203" x="-6679635.709989271" y="-4726054.349012015" >
		</node>
		<node id="2006965204" x="-6679407.816244658" y="-4726085.472517352" >
		</node>
		<node id="2006965206" x="-6677853.7707665395" y="-4726313.5826035505" >
		</node>
		<node id="2006965208" x="-6678649.366644887" y="-4726194.2460479" >
		</node>
		<node id="2006965210" x="-6679193.3188172085" y="-4726115.753102979" >
		</node>
		<node id="2006965212" x="-6677578.1287519345" y="-4726378.341881201" >
		</node>
		<node id="2006965214" x="-6677234.775292442" y="-4726444.419701905" >
		</node>
		<node id="2006973631" x="-6679090.582874369" y="-4724132.486979788" >
		</node>
		<node id="2006973634" x="-6679323.786127136" y="-4725544.508235034" >
		</node>
		<node id="2006973638" x="-6679366.043405767" y="-4725816.5058243675" >
		</node>
		<node id="2006973647" x="-6679122.759802219" y="-4724309.877558217" >
		</node>
		<node id="2006973650" x="-6679287.879505782" y="-4725313.426397578" >
		</node>
		<node id="2006973653" x="-6679056.558901851" y="-4723944.933297648" >
		</node>
		<node id="2008482157" x="-6677295.598582004" y="-4726939.959912933" >
		</node>
		<node id="2008482161" x="-6676974.42376767" y="-4726991.406937913" >
		</node>
		<node id="2008482164" x="-6676940.802469812" y="-4726738.867212519" >
		</node>
		<node id="2008482166" x="-6677263.44029913" y="-4726681.481461893" >
		</node>
		<node id="2021000680" x="-6677978.2529404145" y="-4722758.253383617" >
		</node>
		<node id="2021000708" x="-6677711.375955407" y="-4724795.204658482" >
		</node>
		<node id="2070797828" x="-6677759.490705192" y="-4725718.588139534" >
		</node>
		<node id="2070954422" x="-6675575.924624903" y="-4722293.019509332" >
		</node>
		<node id="2070954431" x="-6675523.270611227" y="-4722518.857206337" >
		</node>
		<node id="2073443949" x="-6675880.9452377735" y="-4722479.0160231795" >
		</node>
		<node id="2073443954" x="-6676549.239221433" y="-4723456.773635186" >
		</node>
		<node id="2079100815" x="-6680373.758940686" y="-4724973.948318026" >
		</node>
		<node id="2082358176" x="-6675158.53190144" y="-4723516.73136693" >
		</node>
		<node id="2098758071" x="-6679407.388472582" y="-4724606.224432818" >
		</node>
		<node id="2099094545" x="-6676736.686239755" y="-4723931.37715426" >
		</node>
		<node id="2140878165" x="-6677669.9688986465" y="-4723154.784341506" >
		</node>
		<node id="2140878170" x="-6677657.119407962" y="-4723182.025825707" >
		</node>
		<node id="2147307304" x="-6679722.684515836" y="-4726604.987903663" >
		</node>
		<node id="2147307307" x="-6679493.65161603" y="-4726638.3928898545" >
		</node>
		<node id="2158445324" x="-6678299.781726433" y="-4726509.16178873" >
		</node>
		<node id="2158445325" x="-6678283.22472648" y="-4726580.595144576" >
		</node>
		<node id="2159980889" x="-6677800.403780122" y="-4727046.018314982" >
		</node>
		<node id="2210723697" x="-6675785.538773136" y="-4721567.043359737" >
		</node>
		<node id="2210723698" x="-6675606.339202796" y="-4722092.604437252" >
		</node>
		<node id="2214702621" x="-6674410.438563303" y="-4725018.658555929" >
		</node>
		<node id="2308420507" x="-6677301.225666825" y="-4725329.360330412" >
		</node>
		<node id="2308420508" x="-6677273.250396186" y="-4725103.34289113" >
		</node>
		<node id="2352453476" x="-6677797.821807912" y="-4724786.07006817" >
		</node>
		<node id="2369776691" x="-6676002.788392084" y="-4724164.428579" >
		</node>
		<node id="2370325053" x="-6674627.99814983" y="-4724107.742306446" >
		</node>
		<node id="2380742610" x="-6679791.854853849" y="-4726954.763775619" >
		</node>
		<node id="2380742611" x="-6679783.6556063" y="-4726814.928042701" >
		</node>
		<node id="2391065513" x="-6676909.101203957" y="-4723007.721852887" >
		</node>
		<node id="2391065514" x="-6676889.282378236" y="-4722990.712264807" >
		</node>
		<node id="2395144766" x="-6679924.785334447" y="-4724486.061115943" >
		</node>
		<node id="2396850243" x="-6675308.473864403" y="-4723193.748479175" >
		</node>
		<node id="2396850246" x="-6675277.339956983" y="-4723261.299048296" >
		</node>
		<node id="2396850249" x="-6675395.911222579" y="-4723053.084730068" >
		</node>
		<node id="2397319383" x="-6676265.787072072" y="-4725043.580521153" >
		</node>
		<node id="2397319384" x="-6676221.357986516" y="-4725004.077755587" >
		</node>
		<node id="2397408959" x="-6679306.289529805" y="-4727598.293312292" >
		</node>
		<node id="2397408968" x="-6679008.38290055" y="-4727682.748489271" >
		</node>
		<node id="2397409020" x="-6678987.261617248" y="-4727653.760987206" >
		</node>
		<node id="2397445820" x="-6678405.894994524" y="-4728437.486996075" >
		</node>
		<node id="2397445822" x="-6677741.211636971" y="-4725281.898570368" >
		</node>
		<node id="2397445824" x="-6677771.844854492" y="-4725521.373896273" >
		</node>
		<node id="2397445826" x="-6677739.056955129" y="-4725524.832256383" >
		</node>
		<node id="2397445851" x="-6677824.950145301" y="-4725272.981792165" >
		</node>
		<node id="2400518759" x="-6677369.36949231" y="-4722492.6592780175" >
		</node>
		<node id="2400518763" x="-6677584.495782231" y="-4722474.8647212805" >
		</node>
		<node id="2400540466" x="-6676714.168443032" y="-4723227.250017813" >
		</node>
		<node id="2400540468" x="-6676728.098126043" y="-4723211.59219144" >
		</node>
		<node id="2400540473" x="-6676692.813060433" y="-4723208.833131824" >
		</node>
		<node id="2400540474" x="-6676706.8629208645" y="-4723193.283161929" >
		</node>
		<node id="2400595419" x="-6677781.266862195" y="-4725918.950639249" >
		</node>
		<node id="2400595423" x="-6678306.911447578" y="-4727271.618267214" >
		</node>
		<node id="2418337388" x="-6678950.93303107" y="-4723886.8479553275" >
		</node>
		<node id="2418337389" x="-6678933.4155060975" y="-4723777.182568211" >
		</node>
		<node id="2419408205" x="-6676896.216343856" y="-4722530.454579833" >
		</node>
		<node id="2428741831" x="-6676835.290558158" y="-4728073.866798654" >
		</node>
		<node id="2428741835" x="-6676814.287402432" y="-4728061.82003845" >
		</node>
		<node id="2441819611" x="-6677667.281767528" y="-4723138.838960131" >
		</node>
		<node id="2441819626" x="-6677657.618026774" y="-4723244.02071861" >
		</node>
		<node id="2441819644" x="-6677653.610924256" y="-4723308.1061266875" >
		</node>
		<node id="2451555632" x="-6675814.312432448" y="-4721531.025751777" >
		</node>
		<node id="2451555637" x="-6675775.046664857" y="-4721533.429958854" >
		</node>
		<node id="2453466206" x="-6675565.928137448" y="-4722516.82002554" >
		</node>
		<node id="2453626790" x="-6676297.26473493" y="-4721545.27939888" >
		</node>
		<node id="2453626791" x="-6673940.189972309" y="-4725756.17443002" >
		</node>
		<node id="2454873866" x="-6680354.529761737" y="-4724936.61960785" >
		</node>
		<node id="2454873871" x="-6680346.968296019" y="-4724968.575398671" >
		</node>
		<node id="2455534162" x="-6676247.17616464" y="-4725021.920241793" >
		</node>
		<node id="2466376871" x="-6675149.598623246" y="-4725103.4376402395" >
		</node>
		<node id="246650787" x="-6675263.639139536" y="-4722099.950108112" >
		</node>
		<node id="246650796" x="-6675555.990880058" y="-4722288.006209528" >
		</node>
		<node id="247954997" x="-6676302.003662074" y="-4721515.02009705" >
		</node>
		<node id="2489402583" x="-6675320.610571301" y="-4723227.082883111" >
		</node>
		<node id="2489402591" x="-6675202.958273573" y="-4723837.757457584" >
		</node>
		<node id="2489402593" x="-6675061.895314876" y="-4723795.573819172" >
		</node>
		<node id="2499530988" x="-6674695.215077351" y="-4724976.994243763" >
		</node>
		<node id="2499531001" x="-6674626.72691856" y="-4724948.996175217" >
		</node>
		<node id="2520923607" x="-6679394.353726715" y="-4724544.416902088" >
		</node>